Version 4
SHEET 1 4652 1308
WIRE 2624 224 2560 224
WIRE 2864 224 2688 224
WIRE 2752 288 2672 288
WIRE 2864 288 2864 224
WIRE 2864 288 2832 288
WIRE 1888 384 1888 368
WIRE 2752 416 2752 400
WIRE 2448 432 2416 432
WIRE 2560 432 2560 224
WIRE 2560 432 2528 432
WIRE 2608 432 2560 432
WIRE 2672 432 2672 288
WIRE 2720 432 2672 432
WIRE 2864 448 2864 288
WIRE 2864 448 2784 448
WIRE 2992 448 2864 448
WIRE 2560 464 2560 432
WIRE 2720 464 2704 464
WIRE 1888 480 1888 464
WIRE 1952 480 1888 480
WIRE 1392 496 1392 480
WIRE 1888 496 1888 480
WIRE 2704 496 2704 464
WIRE 3488 544 3440 544
WIRE 3632 544 3568 544
WIRE 2560 560 2560 544
WIRE 2752 560 2752 480
WIRE 1392 592 1392 576
WIRE 1888 592 1888 576
WIRE 4176 608 3888 608
WIRE 3200 640 3120 640
WIRE 3328 640 3280 640
WIRE 1664 672 1664 656
WIRE 3984 672 3984 560
WIRE 3536 688 3536 672
WIRE 3888 688 3888 608
WIRE 3952 688 3888 688
WIRE 3328 704 3328 640
WIRE 3440 704 3440 544
WIRE 3440 704 3328 704
WIRE 3504 704 3440 704
WIRE 4064 704 4016 704
WIRE 4176 704 4176 608
WIRE 4176 704 4128 704
WIRE 4304 704 4176 704
WIRE 3632 720 3632 544
WIRE 3632 720 3568 720
WIRE 3760 720 3632 720
WIRE 3888 720 3824 720
WIRE 3952 720 3888 720
WIRE 4304 720 4304 704
WIRE 1408 736 1408 720
WIRE 3200 736 3120 736
WIRE 3328 736 3328 704
WIRE 3328 736 3280 736
WIRE 3504 736 3472 736
WIRE 4176 736 4176 704
WIRE 1664 768 1664 752
WIRE 3888 768 3888 720
WIRE 3984 768 3984 736
WIRE 2624 784 2560 784
WIRE 2864 784 2688 784
WIRE 3536 784 3536 752
WIRE 1408 832 1408 816
WIRE 4176 832 4176 800
WIRE 4304 832 4304 800
WIRE 4448 832 4304 832
WIRE 4544 832 4448 832
WIRE 2752 848 2672 848
WIRE 2864 848 2864 784
WIRE 2864 848 2832 848
WIRE 4304 864 4304 832
WIRE 4448 864 4448 832
WIRE 3888 880 3888 848
WIRE 4448 960 4448 928
WIRE 2752 976 2752 960
WIRE 4304 976 4304 944
WIRE 2448 992 2416 992
WIRE 2560 992 2560 784
WIRE 2560 992 2528 992
WIRE 2608 992 2560 992
WIRE 2672 992 2672 848
WIRE 2720 992 2672 992
WIRE 2864 1008 2864 848
WIRE 2864 1008 2784 1008
WIRE 3008 1008 2864 1008
WIRE 2560 1024 2560 992
WIRE 2720 1024 2704 1024
WIRE 2704 1056 2704 1024
WIRE 2560 1120 2560 1104
WIRE 2752 1120 2752 1040
FLAG 2560 560 0
FLAG 2752 560 VSS
IOPIN 2752 560 In
FLAG 2752 400 VDD
IOPIN 2752 400 In
FLAG 2416 432 Vin_audio
IOPIN 2416 432 In
FLAG 1664 656 Vin_audio
IOPIN 1664 656 Out
FLAG 1664 768 0
FLAG 1392 592 0
FLAG 1392 480 VDD
IOPIN 1392 480 Out
FLAG 1408 720 0
FLAG 1408 832 VSS
IOPIN 1408 832 Out
FLAG 2560 1120 0
FLAG 2752 1120 VSS
IOPIN 2752 1120 In
FLAG 2752 960 VDD
IOPIN 2752 960 In
FLAG 2416 992 Vin_audio
IOPIN 2416 992 In
FLAG 1888 592 0
FLAG 1888 368 VDD
IOPIN 1888 368 In
FLAG 1952 480 VCM
IOPIN 1952 480 Out
FLAG 2704 496 VCM
IOPIN 2704 496 In
FLAG 2704 1056 VCM
IOPIN 2704 1056 In
FLAG 3008 1008 VBPF2
IOPIN 3008 1008 Out
FLAG 2992 448 VBPF1
IOPIN 2992 448 Out
FLAG 3984 768 0
FLAG 3984 560 VDD
IOPIN 3984 560 In
FLAG 4176 832 0
FLAG 4304 976 0
FLAG 4448 960 0
FLAG 3888 880 0
FLAG 3536 672 VDD
IOPIN 3536 672 In
FLAG 3536 784 0
FLAG 3472 736 VCM
IOPIN 3472 736 In
FLAG 3120 640 VBPF1
IOPIN 3120 640 In
FLAG 3120 736 VBPF2
IOPIN 3120 736 In
FLAG 4544 832 Vref
IOPIN 4544 832 Out
SYMBOL res 2544 416 R90
WINDOW 0 0 56 VBottom 1
WINDOW 3 32 56 VTop 0
SYMATTR InstName R1
SYMATTR Value 10e7
SYMBOL res 2544 448 R0
WINDOW 0 36 40 Left 1
WINDOW 3 36 76 Left 0
SYMATTR InstName R2
SYMATTR Value 1.5e5
SYMBOL res 2736 304 R270
WINDOW 0 32 56 VTop 1
WINDOW 3 0 56 VBottom 0
SYMATTR InstName R3
SYMATTR Value 2e7
SYMBOL cap 2688 208 R90
WINDOW 0 0 32 VBottom 1
WINDOW 3 32 32 VTop 0
SYMATTR InstName C1
SYMATTR Value {C}
SYMBOL cap 2672 416 R90
WINDOW 0 0 32 VBottom 1
WINDOW 3 32 32 VTop 0
SYMATTR InstName C2
SYMATTR Value {C}
SYMBOL voltage 1664 656 R0
WINDOW 3 82 38 Invisible 1
WINDOW 39 0 0 Left 0
SYMATTR Value SINE(2.5 0.45 AC 1)
SYMATTR InstName V1
SYMATTR Value2 AC 1 0
SYMBOL voltage 1392 480 R0
WINDOW 3 24 96 Invisible 2
SYMATTR Value 5
SYMATTR InstName V2
SYMBOL voltage 1408 720 R0
WINDOW 3 24 96 Invisible 2
SYMATTR Value 5
SYMATTR InstName V3
SYMBOL res 2544 976 R90
WINDOW 0 0 56 VBottom 1
WINDOW 3 32 56 VTop 0
SYMATTR InstName R4
SYMATTR Value 267
SYMBOL res 2544 1008 R0
WINDOW 0 36 40 Left 1
WINDOW 3 36 76 Left 0
SYMATTR InstName R5
SYMATTR Value 0.533e5
SYMBOL res 2736 864 R270
WINDOW 0 32 56 VTop 1
WINDOW 3 0 56 VBottom 0
SYMATTR InstName R6
SYMATTR Value 1.067e5
SYMBOL cap 2688 768 R90
WINDOW 0 0 32 VBottom 1
WINDOW 3 32 32 VTop 0
SYMATTR InstName C3
SYMATTR Value 10n
SYMBOL cap 2672 976 R90
WINDOW 0 0 32 VBottom 1
WINDOW 3 32 32 VTop 0
SYMATTR InstName C4
SYMATTR Value 10n
SYMBOL res 1872 368 R0
WINDOW 0 36 40 Invisible 2
WINDOW 3 36 76 Left 0
SYMATTR InstName R7
SYMATTR Value 10
SYMBOL res 1872 480 R0
WINDOW 0 36 40 Invisible 2
WINDOW 3 36 76 Left 0
SYMATTR InstName R8
SYMATTR Value 10
SYMBOL OpAmps\\UniversalOpAmp 2752 448 R0
SYMATTR InstName U1
SYMBOL OpAmps\\UniversalOpAmp 2752 1008 R0
SYMATTR InstName U2
SYMBOL diode 4064 720 R270
WINDOW 0 32 32 VTop 2
WINDOW 3 0 32 VBottom 2
SYMATTR InstName D1
SYMBOL cap 4160 736 R0
SYMATTR InstName C5
SYMATTR Value 100n
SYMBOL res 4288 704 R0
SYMATTR InstName R9
SYMATTR Value 16k
SYMBOL res 4288 848 R0
SYMATTR InstName R10
SYMATTR Value 28k
SYMBOL cap 4432 864 R0
SYMATTR InstName C6
SYMATTR Value 0.25µ
SYMBOL OpAmps\\UniversalOpAmp2 3984 704 R0
SYMATTR InstName U3
SYMBOL OpAmps\\UniversalOpAmp 3536 720 R0
SYMATTR InstName U4
SYMBOL cap 3824 704 R90
WINDOW 0 0 32 VBottom 2
WINDOW 3 32 32 VTop 2
SYMATTR InstName C7
SYMATTR Value 100n
SYMBOL res 3872 752 R0
SYMATTR InstName R11
SYMATTR Value 100k
SYMBOL res 3584 528 R90
WINDOW 0 0 56 VBottom 2
WINDOW 3 32 56 VTop 2
SYMATTR InstName R12
SYMATTR Value 10k
SYMBOL res 3296 624 R90
WINDOW 0 0 56 VBottom 2
WINDOW 3 32 56 VTop 2
SYMATTR InstName R13
SYMATTR Value 10k
SYMBOL res 3296 720 R90
WINDOW 0 0 56 VBottom 2
WINDOW 3 32 56 VTop 2
SYMATTR InstName R14
SYMATTR Value 10k
TEXT 1240 1168 Left 2 !.param C=0.1n fo1=1k fo2=3k x1=6.38e-5 x2=3*6.28e-5
TEXT 1240 1232 Left 2 !;tran 6m
TEXT 1952 856 Left 2 !.ac dec 100 1 5000
