Version 4
SHEET 1 4188 1252
WIRE 976 352 960 352
WIRE 2368 368 2352 368
WIRE 2640 384 2464 384
WIRE 976 416 976 352
WIRE 2352 416 2352 368
WIRE 2352 416 2128 416
WIRE 688 448 688 432
WIRE 2368 448 2368 400
WIRE 2368 448 2320 448
WIRE 656 480 528 480
WIRE 976 496 720 496
WIRE 1024 496 976 496
WIRE 1104 496 1088 496
WIRE 2768 496 2768 464
WIRE 2896 496 2896 464
WIRE 3136 496 3136 464
WIRE 2992 512 2992 464
WIRE 3088 512 2992 512
WIRE 2320 560 2320 448
WIRE 2320 560 2304 560
WIRE 2352 560 2320 560
WIRE 2496 560 2416 560
WIRE 2640 576 2640 384
WIRE 2704 576 2640 576
WIRE 2992 576 2992 512
WIRE 2992 576 2960 576
WIRE 2128 608 2128 416
WIRE 832 624 768 624
WIRE 3136 624 3136 592
WIRE 3264 624 3136 624
WIRE 3392 624 3344 624
WIRE 3632 624 3392 624
WIRE 832 656 832 624
WIRE 3136 656 3136 624
WIRE 880 672 864 672
WIRE 2704 672 2640 672
WIRE 2992 672 2960 672
WIRE 688 688 688 624
WIRE 688 688 672 688
WIRE 704 688 688 688
WIRE 800 688 704 688
WIRE 1216 688 1200 688
WIRE 928 704 864 704
WIRE 960 704 928 704
WIRE 1056 704 1040 704
WIRE 1072 704 1056 704
WIRE 1104 704 1104 496
WIRE 1104 704 1072 704
WIRE 1136 704 1104 704
WIRE 2320 704 2304 704
WIRE 2352 704 2320 704
WIRE 2448 704 2416 704
WIRE 2528 704 2512 704
WIRE 1264 720 1200 720
WIRE 1456 720 1264 720
WIRE 2992 736 2992 672
WIRE 3088 736 2992 736
WIRE 2992 752 2992 736
WIRE 1168 784 1168 736
WIRE 3136 784 3136 752
WIRE 704 800 704 688
WIRE 784 800 704 800
WIRE 928 800 928 704
WIRE 928 800 864 800
WIRE 2768 800 2768 752
WIRE 2896 800 2896 752
WIRE 3632 800 3632 624
WIRE -48 816 -48 800
WIRE -48 816 -96 816
WIRE 2320 816 2320 704
WIRE 2352 816 2320 816
WIRE -48 832 -48 816
WIRE 2480 832 2448 832
WIRE 2640 832 2640 672
WIRE 2640 832 2544 832
WIRE 2128 848 2128 672
WIRE 2128 848 2112 848
WIRE 2352 848 2128 848
WIRE 1104 912 1104 704
WIRE 1168 912 1104 912
WIRE 1264 912 1264 720
WIRE 1264 912 1232 912
WIRE 3632 912 3632 864
WIRE 3632 912 3424 912
WIRE -48 928 -48 912
WIRE 112 928 -48 928
WIRE -48 944 -48 928
WIRE 704 992 704 800
WIRE 1040 992 704 992
WIRE 1456 992 1456 720
WIRE 1456 992 1120 992
WIRE 3632 992 3632 912
WIRE 2784 1040 2768 1040
WIRE 2000 1056 1984 1056
WIRE 2656 1056 2000 1056
WIRE 2704 1056 2656 1056
WIRE 2816 1072 2768 1072
WIRE 2880 1072 2816 1072
WIRE 3424 1072 3424 912
WIRE 3424 1072 2960 1072
WIRE 2656 1152 2656 1056
WIRE 2752 1152 2656 1152
WIRE 2816 1152 2816 1072
FLAG -48 720 0
FLAG -96 816 VCM
IOPIN -96 816 Out
FLAG -48 1024 0
FLAG 1216 688 VCM
IOPIN 1216 688 In
FLAG 880 672 VCM
IOPIN 880 672 In
FLAG 1168 672 0
FLAG 832 720 0
FLAG 688 432 0
FLAG 880 352 0
FLAG 112 928 VDD
IOPIN 112 928 Out
FLAG 1168 784 VDD
IOPIN 1168 784 In
FLAG 832 624 VDD
IOPIN 832 624 In
FLAG 688 512 VDD
IOPIN 688 512 In
FLAG 672 688 VSQR
IOPIN 672 688 Out
FLAG 528 480 VPWM
IOPIN 528 480 Out
FLAG 1056 704 Vramp
FLAG 0 624 VCTRL
IOPIN 0 624 Out
FLAG 720 464 PW-
IOPIN 720 464 In
FLAG 1072 704 VRAMP
IOPIN 1072 704 Out
FLAG -80 624 0
FLAG 2240 560 0
FLAG 2240 704 0
FLAG 2768 800 0
FLAG 2896 800 0
FLAG 3392 688 0
FLAG 2768 464 VDD
IOPIN 2768 464 In
FLAG 2896 464 VDD
IOPIN 2896 464 In
FLAG 3136 784 0
FLAG 3136 464 VDD
IOPIN 3136 464 BiDir
FLAG 2128 416 VPWM
IOPIN 2128 416 In
FLAG 2992 464 GateP
IOPIN 2992 464 BiDir
FLAG 2992 752 GateN
IOPIN 2992 752 BiDir
FLAG 2528 704 GateP
IOPIN 2528 704 BiDir
FLAG 2496 560 GateN
IOPIN 2496 560 BiDir
FLAG 2400 784 VDD
IOPIN 2400 784 In
FLAG 2400 880 0
FLAG 2416 336 VDD
IOPIN 2416 336 In
FLAG 2416 432 0
FLAG 3632 1072 0
FLAG 2784 1040 VREF
IOPIN 2784 1040 In
FLAG 2736 1088 VDD
IOPIN 2736 1088 In
FLAG 2736 1024 0
FLAG 2000 1056 PW-
FLAG 4096 1232 0
FLAG 4096 1152 VREF
IOPIN 4096 1152 BiDir
SYMBOL res 1024 1008 R270
WINDOW 0 32 56 VTop 2
WINDOW 3 0 56 VBottom 2
SYMATTR InstName R1
SYMATTR Value {R1}
SYMBOL cap 1168 928 R270
WINDOW 0 32 32 VTop 2
WINDOW 3 0 32 VBottom 2
SYMATTR InstName C1
SYMATTR Value {C1}
SYMBOL cap 1024 512 R270
WINDOW 0 32 32 VTop 2
WINDOW 3 0 32 VBottom 2
SYMATTR InstName C2
SYMATTR Value {CBIAS}
SYMBOL res 992 512 R180
WINDOW 0 36 76 Left 2
WINDOW 3 36 40 Left 2
SYMATTR InstName Rbias
SYMATTR Value {RBIAS}
SYMBOL res 944 720 R270
WINDOW 0 32 56 VTop 2
WINDOW 3 0 56 VBottom 2
SYMATTR InstName R2
SYMATTR Value {R2}
SYMBOL Comparators\\LTC6752 832 624 M0
SYMATTR InstName CMP1
SYMBOL res 768 816 R270
WINDOW 0 32 56 VTop 2
WINDOW 3 0 56 VBottom 2
SYMATTR InstName R3
SYMATTR Value {R3}
SYMBOL res -32 816 R180
WINDOW 0 36 76 Left 2
WINDOW 3 36 40 Left 2
SYMATTR InstName R5
SYMATTR Value {R}
SYMBOL res -32 928 R180
WINDOW 0 36 76 Left 2
WINDOW 3 36 40 Left 2
SYMATTR InstName R4
SYMATTR Value {R}
SYMBOL voltage -48 928 R0
SYMATTR InstName VDD
SYMATTR Value {VDD}
SYMBOL voltage 976 352 R90
WINDOW 0 -32 56 VBottom 2
WINDOW 3 32 56 VTop 2
SYMATTR InstName Vbias
SYMATTR Value {VBIAS}
SYMBOL res 672 640 R270
WINDOW 0 32 56 VTop 2
WINDOW 3 0 56 VBottom 2
SYMATTR InstName R6
SYMATTR Value {RPULL}
SYMBOL voltage 16 624 R90
WINDOW 0 -32 56 VBottom 2
WINDOW 3 32 56 VTop 2
SYMATTR InstName V1
SYMATTR Value {VCTRL}
SYMBOL OpAmps\\UniversalOpAmp 1168 704 R180
SYMATTR InstName U3
SYMBOL Comparators\\LTC6752 688 544 R180
SYMATTR InstName U2
SYMBOL cap 2304 544 R90
WINDOW 0 0 32 VBottom 2
WINDOW 3 32 32 VTop 2
SYMATTR InstName C3
SYMATTR Value {Ca}
SYMBOL cap 2304 688 R90
WINDOW 0 0 32 VBottom 2
WINDOW 3 32 32 VTop 2
SYMATTR InstName C4
SYMATTR Value {Cb}
SYMBOL PowerProducts\\LTC1693-1 2832 624 R0
SYMATTR InstName U1
SYMBOL ind 3248 640 R270
WINDOW 0 32 56 VTop 2
WINDOW 3 5 56 VBottom 2
SYMATTR InstName L1
SYMATTR Value {L}
SYMBOL cap 3376 624 R0
SYMATTR InstName C5
SYMATTR Value {Cn}
SYMBOL nmos 3088 656 R0
SYMATTR InstName M1
SYMATTR Value Si7336ADP
SYMBOL pmos 3088 592 M180
SYMATTR InstName M2
SYMATTR Value AO6407
SYMBOL Digital\\inv 2416 768 R180
WINDOW 0 8 32 Invisible 2
SYMATTR InstName A1
SYMATTR Value VHigh=5
SYMBOL Digital\\inv 2512 768 R180
WINDOW 0 8 32 Invisible 2
SYMATTR InstName A2
SYMATTR Value VHigh=5
SYMBOL Digital\\inv 2416 624 R180
WINDOW 0 8 32 Invisible 2
SYMATTR InstName A3
SYMATTR Value VHigh=5
SYMBOL Digital\\inv 2480 768 R0
WINDOW 0 8 32 Invisible 2
SYMATTR InstName A4
SYMATTR Value VHigh=5
SYMBOL Digital\\inv 2192 608 R90
WINDOW 0 8 32 Invisible 2
SYMATTR InstName A5
SYMATTR Value VHigh=5
SYMBOL NAND 2368 832 R0
SYMATTR InstName X1
SYMBOL NAND 2384 384 R0
SYMATTR InstName X2
SYMBOL LED 3616 800 R0
SYMATTR InstName D1
SYMBOL res 3616 976 R0
SYMATTR InstName R8
SYMATTR Value 5
SYMBOL OpAmps\\UniversalOpAmp 2736 1056 R180
SYMATTR InstName U4
SYMBOL res 2976 1056 R90
WINDOW 0 0 56 VBottom 2
WINDOW 3 32 56 VTop 2
SYMATTR InstName R9
SYMATTR Value 50k
SYMBOL cap 2752 1168 R270
WINDOW 0 32 32 VTop 2
WINDOW 3 0 32 VBottom 2
SYMATTR InstName C6
SYMATTR Value 25n
SYMBOL voltage 4096 1136 R0
WINDOW 123 0 0 Left 0
WINDOW 39 0 0 Left 0
SYMATTR InstName V2
SYMATTR Value 250m
TEXT 2192 96 Left 2 !.param Ca=1n Cb=1n Cn=47e-6 L=100e-6 C1=0.1n R1=125000 R3=100k R2=20k R4=100k Rpull=1k Cbias=10u RBIAS=1k R=1k VDD=5 VBIAS=2.5 VCTRL=2.5
TEXT 2520 144 Left 2 !.tran 1s uic
