Version 4
SHEET 1 3620 1028
WIRE 736 48 400 48
WIRE 1152 48 816 48
WIRE -80 224 -96 224
WIRE -64 224 -80 224
WIRE 32 224 32 64
WIRE 32 224 16 224
WIRE 48 224 32 224
WIRE 624 256 592 256
WIRE 752 256 688 256
WIRE -80 272 -80 224
WIRE 992 368 928 368
WIRE 1152 368 1152 48
WIRE 1152 368 1072 368
WIRE 688 432 688 384
WIRE 400 448 400 48
WIRE 592 448 592 256
WIRE 592 448 400 448
WIRE 656 448 592 448
WIRE 752 464 752 256
WIRE 752 464 720 464
WIRE 784 464 752 464
WIRE 800 464 784 464
WIRE 816 464 800 464
WIRE 928 464 928 368
WIRE 928 464 896 464
WIRE 992 464 928 464
WIRE 656 480 640 480
WIRE 1152 480 1152 368
WIRE 1152 480 1056 480
WIRE 1168 480 1152 480
WIRE 1184 480 1168 480
WIRE 992 496 976 496
WIRE 1024 544 1024 512
WIRE 1088 544 1024 544
WIRE 1168 544 1168 480
WIRE 752 672 752 464
WIRE 768 672 752 672
WIRE 880 672 832 672
WIRE 1136 672 880 672
WIRE 1328 688 1200 688
WIRE 1168 736 1168 720
WIRE 880 912 880 752
WIRE 880 912 864 912
WIRE 864 928 864 912
FLAG -176 224 0
FLAG -80 272 VCM
IOPIN -80 272 Out
FLAG 128 224 0
FLAG 640 480 VCM
IOPIN 640 480 In
FLAG 976 496 VCM
IOPIN 976 496 In
FLAG 688 496 0
FLAG 1024 448 0
FLAG 1168 736 0
FLAG 864 1008 0
FLAG 32 64 VDD
IOPIN 32 64 Out
FLAG 688 384 VDD
IOPIN 688 384 In
FLAG 1024 544 VDD
IOPIN 1024 544 In
FLAG 1168 656 VDD
IOPIN 1168 656 In
FLAG 1184 480 VSQR
IOPIN 1184 480 Out
FLAG 1328 688 VPWM
IOPIN 1328 688 Out
FLAG 800 464 Vramp
FLAG 1664 544 VCTRL
IOPIN 1664 544 Out
FLAG 1136 704 VCTRL
IOPIN 1136 704 In
FLAG 784 464 VRAMP
IOPIN 784 464 Out
FLAG 1664 624 0
SYMBOL res 832 32 R90
WINDOW 0 0 56 VBottom 2
WINDOW 3 32 56 VTop 2
SYMATTR InstName R1
SYMATTR Value {R1}
SYMBOL cap 688 240 R90
WINDOW 0 0 32 VBottom 2
WINDOW 3 32 32 VTop 2
SYMATTR InstName C1
SYMATTR Value {C1}
SYMBOL cap 832 656 R90
WINDOW 0 0 32 VBottom 2
WINDOW 3 32 32 VTop 2
SYMATTR InstName C2
SYMATTR Value {CBIAS}
SYMBOL res 864 656 R0
SYMATTR InstName Rbias
SYMATTR Value {RBIAS}
SYMBOL res 912 448 R90
WINDOW 0 0 56 VBottom 2
WINDOW 3 32 56 VTop 2
SYMATTR InstName R2
SYMATTR Value {R2}
SYMBOL Comparators\\LTC6752 1024 544 M180
SYMATTR InstName CMP1
SYMBOL res 1088 352 R90
WINDOW 0 0 56 VBottom 2
WINDOW 3 32 56 VTop 2
SYMATTR InstName R3
SYMATTR Value {R3}
SYMBOL res -80 208 R90
WINDOW 0 0 56 VBottom 2
WINDOW 3 32 56 VTop 2
SYMATTR InstName R5
SYMATTR Value {R}
SYMBOL res 32 208 R90
WINDOW 0 0 56 VBottom 2
WINDOW 3 32 56 VTop 2
SYMATTR InstName R4
SYMATTR Value {R}
SYMBOL voltage 32 224 R270
WINDOW 0 32 56 VTop 2
WINDOW 3 -32 56 VBottom 2
SYMATTR InstName VDD
SYMATTR Value {VDD}
SYMBOL voltage 864 912 R0
SYMATTR InstName Vbias
SYMATTR Value {VBIAS}
SYMBOL res 1184 528 R90
WINDOW 0 0 56 VBottom 2
WINDOW 3 32 56 VTop 2
SYMATTR InstName R6
SYMATTR Value {RPULL}
SYMBOL voltage 1664 528 R0
SYMATTR InstName V1
SYMATTR Value {VCTRL}
SYMBOL OpAmps\\UniversalOpAmp 688 464 R0
SYMATTR InstName U3
SYMBOL Comparators\\LTC6752 1168 624 R0
SYMATTR InstName U2
TEXT 2248 -88 Left 2 !.tran 2e-5 uic\n.param R=10k R1=125k R2=20k R3=100k C1=0.1n CBIAS=5n VBIAS=2.5 RBIAS=1k VDD=5 RPULL=2.2k VCTRL=2.9
