Version 4
SHEET 1 880 680
WIRE 144 160 96 160
WIRE 256 160 224 160
WIRE 384 160 336 160
WIRE 336 240 336 160
WIRE 352 240 336 240
FLAG 384 160 Vo
FLAG 96 160 Vi
FLAG -112 336 0
FLAG -112 256 Vi
SYMBOL res 240 144 R90
WINDOW 0 0 56 VBottom 2
WINDOW 3 32 56 VTop 2
SYMATTR InstName R1
SYMBOL cap 368 304 R180
WINDOW 0 24 56 Left 2
WINDOW 3 24 8 Left 2
SYMATTR InstName C1
SYMATTR Value 10µ
SYMBOL ind 240 176 R270
WINDOW 0 32 56 VTop 2
WINDOW 3 5 56 VBottom 2
SYMATTR InstName L1
SYMATTR Value 10µ
SYMBOL voltage -112 240 R0
SYMATTR InstName V1
